Circuit: *** Spice Circuit File of INV - LasiCkt 7.0.80 06/06/16 10:38:18

Direct Newton iteration for .op point succeeded.

Date: Wed Jun 08 07:18:33 2016
Total elapsed time: 0.156 seconds.

tnom = 27
temp = 27
method = modified trap
totiter = 2494
traniter = 2489
tranpoints = 1200
accept = 1161
rejected = 39
matrix size = 5
fillins = 0
solver = Normal
Matrix Compiler1: 132 bytes object code size  0.2/0.2/[0.1]
Matrix Compiler2: 335 bytes object code size  0.1/0.3/[0.1]


