Circuit: *** Spice Circuit File of NAND - LasiCkt 7.0.80 06/22/16 12:23:18

Direct Newton iteration for .op point succeeded.

Date: Fri Jul 01 10:31:40 2016
Total elapsed time: 0.091 seconds.

tnom = 27
temp = 27
method = modified trap
totiter = 2516
traniter = 2508
tranpoints = 1196
accept = 1161
rejected = 35
matrix size = 8
fillins = 0
solver = Normal
Matrix Compiler1: 300 bytes object code size  0.2/0.1/[0.1]
Matrix Compiler2: 636 bytes object code size  0.2/0.2/[0.2]


